psse_raw/case25_v35_savnwb.raw
@!IC,SBASE,REV,XFRRAT,NXFRAT,BASFRQ
0,  100.00, 35,     0,     1, 60.00     / PSS(R)E-35.1    MON, APR 27 2020  18:10
IEEE 25 BUS NETWORK
N-1-1 ANALYSIS DEMONSTRATION
GENERAL, THRSHZ=0.0001, PQBRAK=0.7, BLOWUP=5.0, MaxIsolLvls=4, CAMaxReptSln=20, ChkDupCntLbl=0
GAUSS, ITMX=100, ACCP=1.6, ACCQ=1.6, ACCM=1.0, TOL=0.0001
NEWTON, ITMXN=20, ACCN=1.0, TOLN=0.1, VCTOLQ=0.1, VCTOLV=0.00001, DVLIM=0.99, NDVFCT=0.99
ADJUST, ADJTHR=0.005, ACCTAP=1.0, TAPLIM=0.05, SWVBND=100.0, MXTPSS=99, MXSWIM=10
TYSL, ITMXTY=20, ACCTY=1.0, TOLTY=0.00001
SOLVER, FDNS, ACTAPS=0, AREAIN=0, PHSHFT=0, DCTAPS=1, SWSHNT=1, FLATST=0, VARLIM=99, NONDIV=0
RATING, 1, "RATE1 ", "RATING SET 1                    "
RATING, 2, "RATE2 ", "RATING SET 2                    "
RATING, 3, "RATE3 ", "RATING SET 3                    "
RATING, 4, "RATE4 ", "RATING SET 4                    "
RATING, 5, "RATE5 ", "RATING SET 5                    "
RATING, 6, "RATE6 ", "RATING SET 6                    "
RATING, 7, "RATE7 ", "RATING SET 7                    "
RATING, 8, "RATE8 ", "RATING SET 8                    "
RATING, 9, "RATE9 ", "RATING SET 9                    "
RATING,10, "RATE10", "RATING SET 10                   "
RATING,11, "RATE11", "RATING SET 11                   "
RATING,12, "RATE12", "RATING SET 12                   "
0 / END OF SYSTEM-WIDE DATA, BEGIN BUS DATA
@!   I,'NAME        ', BASKV, IDE,AREA,ZONE,OWNER, VM,        VA,    NVHI,   NVLO,   EVHI,   EVLO
   101,'COAL-A-XK9  ', 138.0000,2,   1,   1,   1,1.04908,  -9.2630,1.10000,0.90000,1.10000,0.90000
   102,'COAL-B-QZ7  ', 138.0000,2,   1,   2,   1,1.04939,  -9.5417,1.10000,0.90000,1.10000,0.90000
   103,'WESTIE-1-M4 ', 138.0000,1,   2,   1,   1,0.99379,  -0.9769,1.10000,0.90000,1.10000,0.90000
   104,'MARYLOAD-J8 ', 138.0000,1,   1,   1,   1,0.99666, -11.0232,1.10000,0.90000,1.10000,0.90000
   105,'ANNELOAD-R3 ', 138.0000,1,   1,   1,   1,1.00992, -15.9143,1.10000,0.90000,1.10000,0.90000
   106,'REACTOR-W5  ', 138.0000,1,   2,   2,   1,1.01961, -21.2569,1.10000,0.90000,1.10000,0.90000
   107,'MIDOIL-L2   ', 138.0000,2,   5,   2,   1,1.04439, -17.5131,1.10000,0.90000,1.10000,0.90000
   108,'ERIKLOAD-P6 ', 138.0000,1,   5,   2,   1,0.98812, -19.7025,1.10000,0.90000,1.10000,0.90000
   109,'MIDTIE-1-H1 ', 138.0000,1,   2,   3,   1,0.99746,  -7.0103,1.10000,0.90000,1.10000,0.90000
   110,'EASTIE-1-N9 ', 138.0000,1,   2,   3,   1,1.01099, -18.9049,1.10000,0.90000,1.10000,0.90000
   211,'MIDTIE-2-F4 ', 230.0000,1,   3,   3,   1,0.96497, -10.9926,1.10000,0.90000,1.10000,0.90000
   212,'EASTIE-2-D8 ', 230.0000,1,   3,   3,   1,0.97476,   0.8843,1.10000,0.90000,1.10000,0.90000
   213,'BIGOIL-T7   ', 230.0000,3,   3,   4,   1,1.01558,   0.0000,1.10000,0.90000,1.10000,0.90000
   214,'CONDENS-Y2  ', 230.0000,2,   3,   6,   1,0.99524, -12.7780,1.10000,0.90000,1.10000,0.90000
   215,'MIDCOALP-S5 ', 230.0000,2,   4,   6,   1,1.01762,  14.9089,1.10000,0.90000,1.10000,0.90000
   216,'MIDCOAL-B3  ', 230.0000,2,   4,   6,   1,1.02575,  15.6935,1.10000,0.90000,1.10000,0.90000
   217,'NOLOAD-K6   ', 230.0000,1,   4,   7,   1,1.04041,  20.1747,1.10000,0.90000,1.10000,0.90000
   218,'NUKE-A-V1   ', 230.0000,2,   4,   7,   1,1.04994,  21.0067,1.10000,0.90000,1.10000,0.90000
   219,'VIKING-G4   ', 230.0000,1,   3,   5,   1,1.02554,  14.6509,1.10000,0.90000,1.10000,0.90000
   220,'CARIOCA-Z9  ', 230.0000,1,   3,   5,   1,1.03823,  16.1316,1.10000,0.90000,1.10000,0.90000
   221,'NUKE-B-A7   ', 230.0000,2,   4,   7,   1,1.04994,  21.9201,1.10000,0.90000,1.10000,0.90000
   222,'HYDRO-E8    ', 230.0000,2,   4,   7,   1,1.04966,  32.0862,1.10000,0.90000,1.10000,0.90000
   223,'BIGCOAL-U2  ', 230.0000,2,   3,   5,   1,1.04990,  17.8151,1.10000,0.90000,1.10000,0.90000
   224,'WESTIE-2-C6 ', 230.0000,1,   3,   6,   1,0.96676,   3.6160,1.10000,0.90000,1.10000,0.90000
   225,'ADDON-I3    ', 230.0000,1,   3,   5,   1,1.00305,  11.8353,1.10000,0.90000,1.10000,0.90000
0 / END OF BUS DATA, BEGIN LOAD DATA
@!   I,'ID',STAT,AREA,ZONE,      PL,        QL,        IP,        IQ,        YP,        YQ, OWNER,SCALE,INTRPT,  DGENP,     DGENQ,DGENF,'  LOAD TYPE '
   101,'1 ',   1,   1,   1,   100.000,    27.500,     0.000,     0.000,     0.000,     0.000,   1,    1,  1,     0.000,     0.000,    0,'            '
   102,'1 ',   1,   1,   2,   121.300,    25.000,     0.000,     0.000,     0.000,     0.000,   1,    1,  0,     0.000,     0.000,    0,'            '
   103,'1 ',   1,   2,   1,   225.000,    46.300,     0.000,     0.000,     0.000,     0.000,   1,    1,  0,     0.000,     0.000,    0,'            '
   104,'1 ',   1,   1,   1,    92.500,    18.800,     0.000,     0.000,     0.000,     0.000,   1,    1,  0,     0.000,     0.000,    0,'            '
   105,'1 ',   1,   1,   1,    88.800,    17.500,     0.000,     0.000,     0.000,     0.000,   1,    1,  0,     0.000,     0.000,    0,'            '
   106,'1 ',   1,   2,   2,   170.000,    35.000,     0.000,     0.000,     0.000,     0.000,   1,    1,  0,     0.000,     0.000,    0,'            '
   107,'1 ',   1,   5,   2,   156.300,    31.300,     0.000,     0.000,     0.000,     0.000,   1,    1,  0,     0.000,     0.000,    0,'            '
   108,'1 ',   1,   5,   2,   213.800,    43.800,     0.000,     0.000,     0.000,     0.000,   1,    1,  0,     0.000,     0.000,    0,'            '
   109,'1 ',   1,   2,   3,   218.800,    45.000,     0.000,     0.000,     0.000,     0.000,   1,    1,  0,     0.000,     0.000,    0,'            '
   110,'1 ',   1,   2,   3,   243.800,    50.000,     0.000,     0.000,     0.000,     0.000,   1,    1,  0,     0.000,     0.000,    0,'            '
   213,'1 ',   1,   3,   4,   331.300,    67.500,     0.000,     0.000,     0.000,     0.000,   1,    1,  0,     0.000,     0.000,    0,'            '
   214,'1 ',   1,   3,   6,   242.500,    49.800,     0.000,     0.000,     0.000,     0.000,   1,    1,  0,     0.000,     0.000,    0,'            '
   215,'1 ',   1,   4,   6,   396.300,    80.000,     0.000,     0.000,     0.000,     0.000,   1,    1,  0,     0.000,     0.000,    0,'            '
   216,'1 ',   1,   4,   6,   125.000,    25.000,     0.000,     0.000,     0.000,     0.000,   1,    1,  0,     0.000,     0.000,    0,'            '
   218,'1 ',   1,   4,   7,   416.300,    85.000,     0.000,     0.000,     0.000,     0.000,   1,    1,  0,     0.000,     0.000,    0,'            '
   219,'1 ',   1,   3,   5,   226.300,    46.200,     0.000,     0.000,     0.000,     0.000,   1,    1,  0,     0.000,     0.000,    0,'            '
   220,'1 ',   1,   3,   5,   160.000,    32.500,     0.000,     0.000,     0.000,     0.000,   1,    1,  0,     0.000,     0.000,    0,'            '
0 / END OF LOAD DATA, BEGIN FIXED SHUNT DATA
@!   I,'ID',STATUS,  GL,        BL
   106,'1 ',1,     0.000,   -40.000
0 / END OF FIXED SHUNT DATA, BEGIN GENERATOR DATA
@!   I,'ID',      PG,        QG,        QT,        QB,     VS,    IREG,NREG,     MBASE,     ZR,         ZX,         RT,         XT,     GTAP,STAT, RMPCT,      PT,        PB,BASLOD,O1,    F1,  O2,    F2,  O3,    F3,  O4,    F4,WMOD, WPF
   101,'1 ',    10.000,     0.000,    10.000,     0.000,1.04908,   101,   0,    40.000, 0.00000E+0, 2.00000E-1, 0.00000E+0, 0.00000E+0,1.00000,0,  100.0,    20.000,     0.000, 0,   1,1.0000
   101,'2 ',    10.000,     0.000,    10.000,     0.000,1.04908,   101,   0,    40.000, 0.00000E+0, 2.00000E-1, 0.00000E+0, 0.00000E+0,1.00000,0,  100.0,    20.000,     0.000, 0,   1,1.0000
   101,'3 ',    76.000,    18.257,    30.000,   -25.000,1.04908,   101,   0,   100.000, 0.00000E+0, 1.81000E-1, 0.00000E+0, 0.00000E+0,1.00000,1,  100.0,    80.000,     0.000, 0,   1,1.0000
   101,'4 ',    76.000,    18.257,    30.000,   -25.000,1.04908,   101,   0,   100.000, 0.00000E+0, 1.81000E-1, 0.00000E+0, 0.00000E+0,1.00000,1,  100.0,    80.000,     0.000, 0,   1,1.0000
   101,'5 ',    76.000,    18.257,    30.000,   -25.000,1.04908,   101,   0,   100.000, 0.00000E+0, 1.81000E-1, 0.00000E+0, 0.00000E+0,1.00000,1,  100.0,    80.000,     0.000, 0,   1,1.0000
   102,'1 ',    10.000,     0.000,    10.000,     0.000,1.04939,   102,   0,    40.000, 0.00000E+0, 2.00000E-1, 0.00000E+0, 0.00000E+0,1.00000,0,  100.0,    20.000,     0.000, 0,   1,1.0000
   102,'2 ',    10.000,     0.000,    10.000,     0.000,1.04939,   102,   0,    40.000, 0.00000E+0, 2.00000E-1, 0.00000E+0, 0.00000E+0,1.00000,0,  100.0,    20.000,     0.000, 0,   1,1.0000
   102,'3 ',    76.000,    12.955,    30.000,   -25.000,1.04939,   102,   0,   100.000, 0.00000E+0, 1.81000E-1, 0.00000E+0, 0.00000E+0,1.00000,1,  100.0,    80.000,     0.000, 0,   1,1.0000
   102,'4 ',    76.000,    12.955,    30.000,   -25.000,1.04939,   102,   0,   100.000, 0.00000E+0, 1.81000E-1, 0.00000E+0, 0.00000E+0,1.00000,1,  100.0,    80.000,     0.000, 0,   1,1.0000
   102,'5 ',    76.000,    12.955,    30.000,   -25.000,1.04939,   102,   0,   100.000, 0.00000E+0, 1.81000E-1, 0.00000E+0, 0.00000E+0,1.00000,1,  100.0,    80.000,     0.000, 0,   1,1.0000
   107,'1 ',    80.000,    35.218,    60.000,     0.000,1.04439,   107,   0,   120.000, 0.00000E+0, 1.70000E-1, 0.00000E+0, 0.00000E+0,1.00000,1,  100.0,   100.000,     0.000, 0,   1,1.0000
   107,'2 ',    80.000,    35.218,    60.000,     0.000,1.04439,   107,   0,   120.000, 0.00000E+0, 1.70000E-1, 0.00000E+0, 0.00000E+0,1.00000,1,  100.0,   100.000,     0.000, 0,   1,1.0000
   107,'3 ',    80.000,    35.218,    60.000,     0.000,1.04439,   107,   0,   120.000, 0.00000E+0, 1.70000E-1, 0.00000E+0, 0.00000E+0,1.00000,1,  100.0,   100.000,     0.000, 0,   1,1.0000
   213,'1 ',    78.813,    67.696,    80.000,     0.000,1.01558,   213,   0,   250.000, 0.00000E+0, 1.70000E-1, 0.00000E+0, 0.00000E+0,1.00000,1,  100.0,   200.000,     0.000, 0,   1,1.0000
   213,'2 ',    89.298,    76.702,    80.000,     0.000,1.01558,   213,   0,   250.000, 0.00000E+0, 1.70000E-1, 0.00000E+0, 0.00000E+0,1.00000,1,  100.0,   200.000,     0.000, 0,   1,1.0000
   213,'3 ',    89.298,    76.702,    80.000,     0.000,1.01558,   213,   0,   250.000, 0.00000E+0, 1.70000E-1, 0.00000E+0, 0.00000E+0,1.00000,1,  100.0,   200.000,     0.000, 0,   1,1.0000
   213,'4 ',    89.298,    76.702,    80.000,     0.000,1.01558,   213,   0,   250.000, 0.00000E+0, 1.70000E-1, 0.00000E+0, 0.00000E+0,1.00000,1,  100.0,   200.000,     0.000, 0,   1,1.0000
   214,'1 ',     0.000,    50.000,    50.000,  -200.000,1.00442,   214,   0,   200.000, 0.00000E+0, 2.27000E-1, 0.00000E+0, 0.00000E+0,1.00000,1,  100.0,     0.000,     0.000, 0,   1,1.0000
   214,'2 ',     0.000,    50.000,    50.000,  -200.000,1.00442,   214,   0,   200.000, 0.00000E+0, 2.27000E-1, 0.00000E+0, 0.00000E+0,1.00000,1,  100.0,     0.000,     0.000, 0,   1,1.0000
   215,'1 ',    12.000,     0.000,     6.000,     0.000,1.02448,   215,   0,    20.000, 0.00000E+0, 2.27000E-1, 0.00000E+0, 0.00000E+0,1.00000,0,  100.0,    12.000,     0.000, 0,   1,1.0000
   215,'2 ',    12.000,     0.000,     6.000,     0.000,1.02448,   215,   0,    20.000, 0.00000E+0, 2.27000E-1, 0.00000E+0, 0.00000E+0,1.00000,0,  100.0,    12.000,     0.000, 0,   1,1.0000
   215,'3 ',    12.000,     0.000,     6.000,     0.000,1.02448,   215,   0,    20.000, 0.00000E+0, 2.27000E-1, 0.00000E+0, 0.00000E+0,1.00000,0,  100.0,    12.000,     0.000, 0,   1,1.0000
   215,'4 ',    12.000,     0.000,     6.000,     0.000,1.02448,   215,   0,    20.000, 0.00000E+0, 2.27000E-1, 0.00000E+0, 0.00000E+0,1.00000,0,  100.0,    12.000,     0.000, 0,   1,1.0000
   215,'5 ',    12.000,     0.000,     6.000,     0.000,1.02448,   215,   0,    20.000, 0.00000E+0, 2.27000E-1, 0.00000E+0, 0.00000E+0,1.00000,0,  100.0,    12.000,     0.000, 0,   1,1.0000
   215,'6 ',   155.000,    80.000,    80.000,   -50.000,1.02448,   215,   0,   372.000, 0.00000E+0, 1.81000E-1, 0.00000E+0, 0.00000E+0,1.00000,1,  100.0,   300.000,     0.000, 0,   1,1.0000
   216,'1 ',   155.000,    80.000,    80.000,   -50.000,1.02648,   216,   0,   372.000, 0.00000E+0, 1.81000E-1, 0.00000E+0, 0.00000E+0,1.00000,1,  100.0,   300.000,     0.000, 0,   1,1.0000
   218,'1 ',   400.000,   151.018,   200.000,   -50.000,1.04994,   218,   0,   700.000, 0.00000E+0, 3.00000E-1, 0.00000E+0, 0.00000E+0,1.00000,1,  100.0,   600.000,     0.000, 0,   1,1.0000
   221,'1 ',   400.000,   121.608,   200.000,   -50.000,1.04994,   221,   0,   460.000, 0.00000E+0, 3.00000E-1, 0.00000E+0, 0.00000E+0,1.00000,1,  100.0,   400.000,     0.000, 0,   1,1.0000
   222,'1 ',    50.000,    -2.753,    16.000,   -10.000,1.04966,   222,   0,    70.000, 0.00000E+0, 2.60000E-1, 0.00000E+0, 0.00000E+0,1.00000,1,  100.0,    50.000,    50.000, 0,   1,1.0000
   222,'2 ',    50.000,    -2.753,    16.000,   -10.000,1.04966,   222,   0,    70.000, 0.00000E+0, 2.60000E-1, 0.00000E+0, 0.00000E+0,1.00000,1,  100.0,    50.000,    50.000, 0,   1,1.0000
   222,'3 ',    50.000,    -2.753,    16.000,   -10.000,1.04966,   222,   0,    70.000, 0.00000E+0, 2.60000E-1, 0.00000E+0, 0.00000E+0,1.00000,1,  100.0,    50.000,    50.000, 0,   1,1.0000
   222,'4 ',    50.000,    -2.753,    16.000,   -10.000,1.04966,   222,   0,    70.000, 0.00000E+0, 2.60000E-1, 0.00000E+0, 0.00000E+0,1.00000,1,  100.0,    50.000,    50.000, 0,   1,1.0000
   222,'5 ',    50.000,    -2.753,    16.000,   -10.000,1.04966,   222,   0,    70.000, 0.00000E+0, 2.60000E-1, 0.00000E+0, 0.00000E+0,1.00000,1,  100.0,    50.000,    50.000, 0,   1,1.0000
   222,'6 ',    50.000,    -2.753,    16.000,   -10.000,1.04966,   222,   0,    70.000, 0.00000E+0, 2.60000E-1, 0.00000E+0, 0.00000E+0,1.00000,1,  100.0,    50.000,    50.000, 0,   1,1.0000
   222,'7 ',    50.000,    -2.753,    16.000,   -10.000,1.04966,   222,   0,    70.000, 0.00000E+0, 2.60000E-1, 0.00000E+0, 0.00000E+0,1.00000,1,  100.0,    50.000,    50.000, 0,   1,1.0000
   222,'8 ',    50.000,    -2.753,    16.000,   -10.000,1.04966,   222,   0,    70.000, 0.00000E+0, 2.60000E-1, 0.00000E+0, 0.00000E+0,1.00000,1,  100.0,    50.000,    50.000, 0,   1,1.0000
   222,'9 ',    50.000,    -2.753,    16.000,   -10.000,1.04966,   222,   0,    70.000, 0.00000E+0, 2.60000E-1, 0.00000E+0, 0.00000E+0,1.00000,1,  100.0,    50.000,    50.000, 0,   1,1.0000
   222,'A ',    50.000,    -2.753,    16.000,   -10.000,1.04966,   222,   0,    70.000, 0.00000E+0, 2.60000E-1, 0.00000E+0, 0.00000E+0,1.00000,1,  100.0,    50.000,    50.000, 0,   1,1.0000
   223,'1 ',   155.000,    29.143,    80.000,   -50.000,1.04990,   223,   0,   200.000, 0.00000E+0, 1.81000E-1, 0.00000E+0, 0.00000E+0,1.00000,1,  100.0,   155.000,     0.000, 0,   1,1.0000
   223,'2 ',   155.000,    29.143,    80.000,   -50.000,1.04990,   223,   0,   200.000, 0.00000E+0, 1.81000E-1, 0.00000E+0, 0.00000E+0,1.00000,1,  100.0,   155.000,     0.000, 0,   1,1.0000
   223,'3 ',   350.000,    65.807,   150.000,   -25.000,1.04990,   223,   0,   420.000, 0.00000E+0, 1.81000E-1, 0.00000E+0, 0.00000E+0,1.00000,1,  100.0,   350.000,     0.000, 0,   1,1.0000
   223,'4 ',   350.000,    65.807,   150.000,   -25.000,1.04990,   223,   0,   420.000, 0.00000E+0, 1.81000E-1, 0.00000E+0, 0.00000E+0,1.00000,1,  100.0,   350.000,     0.000, 0,   1,1.0000
0 / END OF GENERATOR DATA, BEGIN BRANCH DATA
@!   I,     J,'CKT',      R,           X,       B,                   'N A M E'                 ,  RATE1,  RATE2,  RATE3,  RATE4,  RATE5,  RATE6,  RATE7,  RATE8,  RATE9, RATE10, RATE11, RATE12,   GI,      BI,      GJ,      BJ,STAT,MET, LEN,  O1,  F1,    O2,  F2,    O3,  F3,    O4,  F4
   101,   102,'1 ', 2.60000E-03, 1.39000E-02,0.46110,'                                        ', 175.00, 193.00, 200.00,   0.00,   0.00,   0.00,   0.00,   0.00,   0.00,   0.00,   0.00,   0.00, 0.00000, 0.00000, 0.00000, 0.00000,1,1,  0.00,   1,1.0000
   101,   103,'1 ', 5.46000E-02, 2.11200E-01,0.05720,'                                        ', 175.00, 208.00, 220.00,   0.00,   0.00,   0.00,   0.00,   0.00,   0.00,   0.00,   0.00,   0.00, 0.00000, 0.00000, 0.00000, 0.00000,1,1,  0.00,   1,1.0000
   101,   105,'1 ', 2.18000E-02, 8.45000E-02,0.02290,'                                        ', 175.00, 208.00, 220.00,   0.00,   0.00,   0.00,   0.00,   0.00,   0.00,   0.00,   0.00,   0.00, 0.00000, 0.00000, 0.00000, 0.00000,1,1,  0.00,   1,1.0000
   102,   104,'1 ', 3.28000E-02, 1.26700E-01,0.03430,'                                        ', 175.00, 208.00, 220.00,   0.00,   0.00,   0.00,   0.00,   0.00,   0.00,   0.00,   0.00,   0.00, 0.00000, 0.00000, 0.00000, 0.00000,1,1,  0.00,   1,1.0000
   102,   106,'1 ', 4.97000E-02, 1.92000E-01,0.05200,'                                        ', 175.00, 208.00, 220.00,   0.00,   0.00,   0.00,   0.00,   0.00,   0.00,   0.00,   0.00,   0.00, 0.00000, 0.00000, 0.00000, 0.00000,1,1,  0.00,   1,1.0000
   103,   109,'1 ', 3.08000E-02, 1.19000E-01,0.03220,'                                        ', 175.00, 208.00, 220.00,   0.00,   0.00,   0.00,   0.00,   0.00,   0.00,   0.00,   0.00,   0.00, 0.00000, 0.00000, 0.00000, 0.00000,1,1,  0.00,   1,1.0000
   104,   109,'1 ', 2.68000E-02, 1.03700E-01,0.02810,'                                        ', 175.00, 208.00, 220.00,   0.00,   0.00,   0.00,   0.00,   0.00,   0.00,   0.00,   0.00,   0.00, 0.00000, 0.00000, 0.00000, 0.00000,1,1,  0.00,   1,1.0000
   105,   110,'1 ', 2.28000E-02, 8.83000E-02,0.02390,'                                        ', 175.00, 208.00, 220.00,   0.00,   0.00,   0.00,   0.00,   0.00,   0.00,   0.00,   0.00,   0.00, 0.00000, 0.00000, 0.00000, 0.00000,1,1,  0.00,   1,1.0000
   106,   110,'1 ', 1.39000E-02, 6.05000E-02,2.45900,'                                        ', 999.00, 999.00, 999.00,   0.00,   0.00,   0.00,   0.00,   0.00,   0.00,   0.00,   0.00,   0.00, 0.00000, 0.00000, 0.00000, 0.00000,1,1,  0.00,   1,1.0000
   107,   108,'1 ', 1.59000E-02, 6.14000E-02,0.01660,'                                        ', 175.00, 208.00, 220.00,   0.00,   0.00,   0.00,   0.00,   0.00,   0.00,   0.00,   0.00,   0.00, 0.00000, 0.00000, 0.00000, 0.00000,1,1,  0.00,   1,1.0000
   108,   109,'1 ', 4.27000E-02, 1.65100E-01,0.04470,'                                        ', 175.00, 208.00, 220.00,   0.00,   0.00,   0.00,   0.00,   0.00,   0.00,   0.00,   0.00,   0.00, 0.00000, 0.00000, 0.00000, 0.00000,1,1,  0.00,   1,1.0000
   108,   110,'1 ', 4.27000E-02, 1.65100E-01,0.04470,'                                        ', 175.00, 208.00, 220.00,   0.00,   0.00,   0.00,   0.00,   0.00,   0.00,   0.00,   0.00,   0.00, 0.00000, 0.00000, 0.00000, 0.00000,1,1,  0.00,   1,1.0000
   211,   213,'1 ', 6.10000E-03, 4.76000E-02,0.09990,'                                        ', 500.00, 600.00, 625.00,   0.00,   0.00,   0.00,   0.00,   0.00,   0.00,   0.00,   0.00,   0.00, 0.00000, 0.00000, 0.00000, 0.00000,1,1,  0.00,   1,1.0000
   211,   214,'1 ', 5.40000E-03, 4.18000E-02,0.08790,'                                        ', 500.00, 600.00, 625.00,   0.00,   0.00,   0.00,   0.00,   0.00,   0.00,   0.00,   0.00,   0.00, 0.00000, 0.00000, 0.00000, 0.00000,1,1,  0.00,   1,1.0000
   212,   213,'1 ', 6.10000E-03, 4.76000E-02,0.09990,'                                        ', 500.00, 600.00, 625.00,   0.00,   0.00,   0.00,   0.00,   0.00,   0.00,   0.00,   0.00,   0.00, 0.00000, 0.00000, 0.00000, 0.00000,1,1,  0.00,   1,1.0000
   212,   223,'1 ', 1.24000E-02, 9.66000E-02,0.20300,'                                        ', 500.00, 600.00, 625.00,   0.00,   0.00,   0.00,   0.00,   0.00,   0.00,   0.00,   0.00,   0.00, 0.00000, 0.00000, 0.00000, 0.00000,1,1,  0.00,   1,1.0000
   213,   223,'1 ', 1.11000E-02, 8.65000E-02,0.18180,'                                        ', 500.00, 600.00, 625.00,   0.00,   0.00,   0.00,   0.00,   0.00,   0.00,   0.00,   0.00,   0.00, 0.00000, 0.00000, 0.00000, 0.00000,1,1,  0.00,   1,1.0000
   215,   216,'1 ', 2.20000E-03, 1.73000E-02,0.03640,'                                        ', 500.00, 600.00, 625.00,   0.00,   0.00,   0.00,   0.00,   0.00,   0.00,   0.00,   0.00,   0.00, 0.00000, 0.00000, 0.00000, 0.00000,1,1,  0.00,   1,1.0000
   215,   221,'1 ', 6.30000E-03, 4.90000E-02,0.10300,'                                        ', 500.00, 600.00, 625.00,   0.00,   0.00,   0.00,   0.00,   0.00,   0.00,   0.00,   0.00,   0.00, 0.00000, 0.00000, 0.00000, 0.00000,1,1,  0.00,   1,1.0000
   215,   221,'2 ', 6.30000E-03, 4.90000E-02,0.10300,'                                        ', 500.00, 600.00, 625.00,   0.00,   0.00,   0.00,   0.00,   0.00,   0.00,   0.00,   0.00,   0.00, 0.00000, 0.00000, 0.00000, 0.00000,1,1,  0.00,   1,1.0000
   215,   224,'1 ', 6.70000E-03, 5.19000E-02,0.10910,'                                        ', 500.00, 600.00, 625.00,   0.00,   0.00,   0.00,   0.00,   0.00,   0.00,   0.00,   0.00,   0.00, 0.00000, 0.00000, 0.00000, 0.00000,1,1,  0.00,   1,1.0000
   216,   217,'1 ', 3.30000E-03, 2.59000E-02,0.05450,'                                        ', 500.00, 600.00, 625.00,   0.00,   0.00,   0.00,   0.00,   0.00,   0.00,   0.00,   0.00,   0.00, 0.00000, 0.00000, 0.00000, 0.00000,1,1,  0.00,   1,1.0000
   216,   219,'1 ', 3.00000E-03, 2.31000E-02,0.04850,'                                        ', 500.00, 600.00, 625.00,   0.00,   0.00,   0.00,   0.00,   0.00,   0.00,   0.00,   0.00,   0.00, 0.00000, 0.00000, 0.00000, 0.00000,1,1,  0.00,   1,1.0000
   216,   225,'1 ', 5.00000E-03, 3.89000E-02,0.08180,'                                        ', 500.00, 600.00, 625.00,   0.00,   0.00,   0.00,   0.00,   0.00,   0.00,   0.00,   0.00,   0.00, 0.00000, 0.00000, 0.00000, 0.00000,1,1,  0.00,   1,1.0000
   217,   218,'1 ', 1.80000E-03, 1.44000E-02,0.03030,'                                        ', 500.00, 600.00, 625.00,   0.00,   0.00,   0.00,   0.00,   0.00,   0.00,   0.00,   0.00,   0.00, 0.00000, 0.00000, 0.00000, 0.00000,1,1,  0.00,   1,1.0000
   217,   222,'1 ', 1.35000E-02, 1.05300E-01,0.22120,'                                        ', 500.00, 600.00, 625.00,   0.00,   0.00,   0.00,   0.00,   0.00,   0.00,   0.00,   0.00,   0.00, 0.00000, 0.00000, 0.00000, 0.00000,1,1,  0.00,   1,1.0000
   218,   221,'1 ', 3.30000E-03, 2.59000E-02,0.05450,'                                        ', 500.00, 600.00, 625.00,   0.00,   0.00,   0.00,   0.00,   0.00,   0.00,   0.00,   0.00,   0.00, 0.00000, 0.00000, 0.00000, 0.00000,1,1,  0.00,   1,1.0000
   218,   221,'2 ', 3.30000E-03, 2.59000E-02,0.05450,'                                        ', 500.00, 600.00, 625.00,   0.00,   0.00,   0.00,   0.00,   0.00,   0.00,   0.00,   0.00,   0.00, 0.00000, 0.00000, 0.00000, 0.00000,1,1,  0.00,   1,1.0000
   219,   220,'1 ', 5.10000E-03, 3.96000E-02,0.08330,'                                        ', 500.00, 600.00, 625.00,   0.00,   0.00,   0.00,   0.00,   0.00,   0.00,   0.00,   0.00,   0.00, 0.00000, 0.00000, 0.00000, 0.00000,1,1,  0.00,   1,1.0000
   219,   220,'2 ', 5.10000E-03, 3.96000E-02,0.08330,'                                        ', 500.00, 600.00, 625.00,   0.00,   0.00,   0.00,   0.00,   0.00,   0.00,   0.00,   0.00,   0.00, 0.00000, 0.00000, 0.00000, 0.00000,1,1,  0.00,   1,1.0000
   220,   223,'1 ', 2.80000E-03, 2.16000E-02,0.04550,'                                        ', 500.00, 600.00, 625.00,   0.00,   0.00,   0.00,   0.00,   0.00,   0.00,   0.00,   0.00,   0.00, 0.00000, 0.00000, 0.00000, 0.00000,1,1,  0.00,   1,1.0000
   220,   223,'2 ', 2.80000E-03, 2.16000E-02,0.04550,'                                        ', 500.00, 600.00, 625.00,   0.00,   0.00,   0.00,   0.00,   0.00,   0.00,   0.00,   0.00,   0.00, 0.00000, 0.00000, 0.00000, 0.00000,1,1,  0.00,   1,1.0000
   221,   222,'1 ', 8.70000E-03, 6.78000E-02,0.14240,'                                        ', 500.00, 600.00, 625.00,   0.00,   0.00,   0.00,   0.00,   0.00,   0.00,   0.00,   0.00,   0.00, 0.00000, 0.00000, 0.00000, 0.00000,1,1,  0.00,   1,1.0000
0 / END OF BRANCH DATA, BEGIN SYSTEM SWITCHING DEVICE DATA
@!   I,     J,'CKT',          X,  RATE1,  RATE2,  RATE3,  RATE4,  RATE5,  RATE6,  RATE7,  RATE8,  RATE9, RATE10, RATE11, RATE12, STAT,NSTAT,  MET,STYPE,'NAME'
   220,   222,'*1', 1.00000E-04,1206.00,1106.00,1006.00,   0.00,   0.00,   0.00,   0.00,   0.00,   0.00,   0.00,   0.00,   0.00,    1,    1,    2,    3,'                                        '
   219,   213,'@1', 1.00000E-04,   0.00,   0.00,   0.00,   0.00,   0.00,   0.00,   0.00,   0.00,   0.00,   0.00,   0.00,   0.00,    1,    1,    2,    2,'                                        '
0 / END OF SYSTEM SWITCHING DEVICE DATA, BEGIN TRANSFORMER DATA
@!   I,     J,     K,'CKT',CW,CZ,CM,     MAG1,        MAG2,NMETR,               'N A M E',               STAT,O1,  F1,    O2,  F2,    O3,  F3,    O4,  F4,     'VECGRP', ZCOD
@!   R1-2,       X1-2, SBASE1-2,     R2-3,       X2-3, SBASE2-3,     R3-1,       X3-1, SBASE3-1, VMSTAR,   ANSTAR
@!WINDV1, NOMV1,   ANG1, RATE1-1, RATE1-2, RATE1-3, RATE1-4, RATE1-5, RATE1-6, RATE1-7, RATE1-8, RATE1-9,RATE1-10,RATE1-11,RATE1-12,COD1,CONT1,NOD1,  RMA1,   RMI1,   VMA1,   VMI1, NTP1,TAB1, CR1,    CX1,  CNXA1
@!WINDV2, NOMV2,   ANG2, RATE2-1, RATE2-2, RATE2-3, RATE2-4, RATE2-5, RATE2-6, RATE2-7, RATE2-8, RATE2-9,RATE2-10,RATE2-11,RATE2-12,COD2,CONT2,NOD2,  RMA2,   RMI2,   VMA2,   VMI2, NTP2,TAB2, CR2,    CX2,  CNXA2
@!WINDV3, NOMV3,   ANG3, RATE3-1, RATE3-2, RATE3-3, RATE3-4, RATE3-5, RATE3-6, RATE3-7, RATE3-8, RATE3-9,RATE3-10,RATE3-11,RATE3-12,COD3,CONT3,NOD3,  RMA3,   RMI3,   VMA3,   VMI3, NTP3,TAB3, CR3,    CX3,  CNXA3
   103,   224,     0,'1 ', 1, 1, 1, 0.00000E+00, 0.00000E+00,2,'                                        ',1,   1,1.0000,   0,1.0000,   0,1.0000,   0,1.0000,'            '
 2.30000E-3, 2.00000E-2, 100.00
1.03750,  0.000,  0.000,  400.00,  510.00,  600.00,    0.00,    0.00,    0.00,    0.00,    0.00,    0.00,    0.00,    0.00,    0.00, 1,    215,   0,1.05000,0.95000,1.10000,0.90000,  17, 1,0.00000,0.00000, 0.000
1.00000,   0.00
   109,   211,     0,'1 ', 1, 1, 1, 0.00000E+00, 0.00000E+00,2,'                                        ',1,   1,1.0000,   0,1.0000,   0,1.0000,   0,1.0000,'            '
 2.30000E-3, 2.00000E-2, 100.00
1.05000,  0.000,  0.000,  400.00,  510.00,  600.00,    0.00,    0.00,    0.00,    0.00,    0.00,    0.00,    0.00,    0.00,    0.00, 1,    213,   0,1.05000,0.95000,1.10000,0.90000,  17, 2,0.00000,0.00000, 0.000
1.00000,   0.00
   109,   212,     0,'1 ', 1, 1, 1, 0.00000E+00, 0.00000E+00,2,'                                        ',1,   1,1.0000,   0,1.0000,   0,1.0000,   0,1.0000,'            '
 2.30000E-3, 2.00000E-2, 100.00
1.03750,  0.000,  0.000,  450.00,  510.00,  600.00,    0.00,    0.00,    0.00,    0.00,    0.00,    0.00,    0.00,    0.00,    0.00, 1,    213,   0,1.05000,0.95000,1.10000,0.90000,  17, 3,0.00000,0.00000, 0.000
1.00000,   0.00
   110,   211,     0,'1 ', 1, 1, 1, 0.00000E+00, 0.00000E+00,2,'                                        ',1,   1,1.0000,   0,1.0000,   0,1.0000,   0,1.0000,'            '
 2.30000E-3, 2.00000E-2, 100.00
1.05000,  0.000,  0.000,  400.00,  510.00,  600.00,    0.00,    0.00,    0.00,    0.00,    0.00,    0.00,    0.00,    0.00,    0.00, 1,    110,   0,1.05000,0.95000,1.10000,0.90000,  17, 4,0.00000,0.00000, 0.000
1.00000,   0.00
   110,   212,     0,'1 ', 1, 1, 1, 0.00000E+00, 0.00000E+00,1,'                                        ',1,   1,1.0000,   0,1.0000,   0,1.0000,   0,1.0000,'            '
 2.30000E-3, 2.00000E-2, 100.00
1.03717,  0.000,-24.229,  400.00,  510.00,  600.00,    0.00,    0.00,    0.00,    0.00,    0.00,    0.00,    0.00,    0.00,    0.00, 3,    110,   0,45.0500,-45.000,250.000,220.000,9999, 5,0.00000,0.00000, 0.000
1.00000,   0.00
   225,   214,     0,'1 ', 1, 1, 1, 0.00000E+00, 0.00000E+00,2,'                                        ',1,   1,1.0000,   0,1.0000,   0,1.0000,   0,1.0000,'            '
 1.00000E-3, 2.00000E-2, 100.00
1.00000,  0.000, 22.546,  500.00,  600.00,  625.00,    0.00,    0.00,    0.00,    0.00,    0.00,    0.00,    0.00,    0.00,    0.00, 3,      0,   0,45.0000,-45.000,330.000,300.000,9999, 6,0.00000,0.00000, 0.000
1.00000,   0.00
   110,   211,   222,'1 ', 1, 1, 1, 1.20000E-03,-4.20000E-03,2,'TR3W FOR TESTING V35 EXPORTER.         Z',1,   1,0.1238,   2,0.2477,   3,0.1548,   5,0.4737,'YN0yn0d1    ', 1
 1.13000E-04, 8.05000E-03,1000.00, 2.50000E-04, 1.74700E-02,1000.00, 3.01000E-04, 2.01000E-02,1000.00,0.99225,  -9.7625
0.99884,138.000,  0.000, 1200.00, 1202.12, 1203.13, 1204.14, 1205.15, 1206.16, 1207.17, 1208.18, 1209.19, 1210.20, 1211.21, 1212.22, 1,    110,   0,1.10020,0.92000,1.16000,0.93000,  33, 3,0.00013,0.00016, 0.000
1.00000,230.000,  0.000, 1250.00, 1252.12, 1253.13, 1254.14, 1255.15, 1256.16, 1257.17, 1258.18, 1259.19, 1260.20, 1261.21, 1262.22, 0,      0,   0,1.10010,0.90000,1.14000,0.91000,  22, 0,0.00012,0.00015, 0.000
1.00000,230.400,  0.000, 1280.00, 1282.12, 1283.13, 1284.14, 1285.15, 1286.16, 1287.17, 1288.18, 1289.19, 1290.20, 1291.21, 1292.22, 0,      0,   0,1.10000,0.91000,1.10000,0.92000,  11, 4,0.00011,0.00014, 0.000
0 / END OF TRANSFORMER DATA, BEGIN AREA DATA
@! I,   ISW,    PDES,     PTOL,    'ARNAME'
   1,     0,    0.000,   10.000,'TEST1       '
   2,     0,    0.000,   10.000,'TEST2       '
   3,     0,    0.000,   10.000,'TEST3       '
   4,     0,    0.000,   10.000,'TEST4       '
   5,     0,    0.000,   10.000,'TEST5       '
0 / END OF AREA DATA, BEGIN TWO-TERMINAL DC DATA
@!  'NAME',   MDC,    RDC,     SETVL,    VSCHD,    VCMOD,    RCOMP,   DELTI,METER,   DCVMIN,CCCITMX,CCCACC
@! IPR,NBR,  ANMXR,  ANMNR,   RCR,    XCR,   EBASR,  TRR,    TAPR,   TMXR,   TMNR,   STPR,    ICR,NDR,   IFR,   ITR,'IDR', XCAPR
@! IPI,NBI,  ANMXI,  ANMNI,   RCI,    XCI,   EBASI,  TRI,    TAPI,   TMXI,   TMNI,   STPI,    ICI,NDI,   IFI,   ITI,'IDI', XCAPI
"TWO_TERM_DC1",1,   7.8543,  1490.65,   525.00,   400.00,   3.9420,  0.15560,'I',     0.00,  20,  1.00000
   101,  2, 13.000,  7.500, 0.0111, 3.8800, 500.00,0.44000,1.06275,1.10000,0.90000,0.00525,     0,  0,     0,     0,'1 ', 2.0034
   225,  2, 21.000, 18.500, 0.0000, 3.0470, 230.00,0.95652,1.07500,1.10000,0.80000,0.00625,     0,  0,   152,  3021,'T4', 2.0000
"TWO_TERM_DC2",1,   8.2000,  1500.00,   525.00,   400.00,   4.1000,  0.15000,'I',     0.00,  20,  1.00000
   107,  2, 12.000,  8.000, 0.0110, 3.8800, 500.00,0.44000,1.05450,1.11200,0.90000,0.00515,     0,  0,     0,     0,'1 ', 0.0098
   217,  2, 20.000, 18.000, 0.0120, 3.0470, 230.00,0.95652,1.06250,1.10000,0.80000,0.00625,     0,  0,   152,  3022,'T5', 0.0074
0 / END OF TWO-TERMINAL DC DATA, BEGIN VSC DC LINE DATA
@!  'NAME',   MDC,  RDC,   O1,  F1,    O2,  F2,    O3,  F3,    O4,  F4
@!IBUS,TYPE,MODE,  DCSET,  ACSET,  ALOSS,  BLOSS,MINLOSS,  SMAX,   IMAX,   PWF,     MAXQ,   MINQ, VSREG,NREG, RMPCT
"VDCLINE1    ",1, 0.7100,   1,0.3204,   2,0.3883,   3,0.1942,   4,0.0971
   212,   2,   2,-209.00,0.95000,100.000,  0.100, 50.000, 400.00,1200.00,0.10000, 100.00,-110.00,  3005,   0, 100.0
   213,   1,   1, 100.00,0.99000, 90.000,  0.150, 40.000, 350.00,1200.00,0.15000, 150.00,-140.00,  3008,   0, 100.0
"VDCLINE2    ",1, 0.3500,   1,0.3705,   2,0.3597,   3,0.1799,   4,0.0899
   220,   2,   1,-100.00,1.00000,100.000,  0.150,123.000, 200.00,1200.00,1.00000, 200.00,-150.00,   203,   0, 100.0
   222,   1,   1, 100.00,1.00000, 93.000,  0.120, 98.000, 250.00,1250.00,1.00000, 225.00,-250.00,   205,   0,  99.0
0 / END OF VSC DC LINE DATA, BEGIN IMPEDANCE CORRECTION DATA
@!I,  T1,   Re(F1), Im(F1),   T2,   Re(F2), Im(F2),   T3,   Re(F3), Im(F3),   T4,   Re(F4), Im(F4),   T5,   Re(F5), Im(F5),   T6,   Re(F6), Im(F6)
@!    T7,   Re(F7), Im(F7),   T8,   Re(F8), Im(F8),   T9,   Re(F9), Im(F9),   T10, Re(F10),Im(F10),   T11, Re(F11),Im(F11),   T12, Re(F12),Im(F12)
@!      ...
 1, -30.00,1.10000,0.00000, -24.00,1.09100,0.00000, -18.00,1.08400,0.00000, -12.00,1.06300,0.00000,  -6.00,1.03200,0.00000,   0.00,1.00000,0.00000
      6.00,1.03000,0.00000,  12.00,1.06000,0.00000,  18.00,1.08000,0.00000,  24.00,1.09000,0.00000,  30.00,1.11000,0.00000,   0.00,0.00000,0.00000
 2,0.60000,1.06000,0.00000,0.70000,1.05000,0.00000,0.80000,1.04000,0.00000,0.90000,1.03000,0.00000,0.95000,1.02000,0.00000,1.00000,1.01000,0.00000
   1.05000,0.99000,0.00000,1.10000,0.98000,0.00000,1.20000,0.97000,0.00000,1.30000,0.96000,0.00000,1.40000,0.95000,0.00000,0.00000,0.00000,0.00000
 3,0.95000,1.00620,0.00058,1.00000,1.00000,0.00000,1.05000,0.99006,0.00011,0.00000,0.00000,0.00000
 4,0.95000,0.96964,0.00054,1.00000,1.00000,0.00000,1.05000,1.02486,0.00077,0.00000,0.00000,0.00000
 5,0.94000,1.00620,0.00058,1.00000,1.00000,0.00000,1.06000,0.99006,0.00011,0.00000,0.00000,0.00000
 6,0.94000,0.96964,0.00054,1.00000,1.00000,0.00000,1.06000,1.02486,0.00077,0.00000,0.00000,0.00000
0 / END OF IMPEDANCE CORRECTION DATA, BEGIN MULTI-TERMINAL DC DATA
@!  'NAME',    NCONV,NDCBS,NDCLN,  MDC, VCONV,   VCMOD, VCONVN
@!  IB, N,  ANGMX,  ANGMN,   RC,     XC,     EBAS,   TR,    TAP,    TPMX,   TPMN,   TSTP,   SETVL,   DCPF,  MARG,CNVCOD
@!IDC, IB,AREA,ZONE,   'DCNAME',  IDC2, RGRND,OWNER
@!IDC,JDC,'DCCKT',MET,  RDC,      LDC
0 / END OF MULTI-TERMINAL DC DATA, BEGIN MULTI-SECTION LINE DATA
@!   I,     J,'ID',MET,DUM1,  DUM2,  DUM3,  DUM4,  DUM5,  DUM6,  DUM7,  DUM8,  DUM9
0 / END OF MULTI-SECTION LINE DATA, BEGIN ZONE DATA
@! I,   'ZONAME'
   1,'TEST1       '
   2,'TEST2       '
   3,'TEST3       '
   4,'TEST4       '
   5,'TEST5       '
   6,'TEST6       '
   7,'TEST7       '
0 / END OF ZONE DATA, BEGIN INTER-AREA TRANSFER DATA
@!ARFROM,ARTO,'TRID',PTRAN
0 / END OF INTER-AREA TRANSFER DATA, BEGIN OWNER DATA
@! I,   'OWNAME'
0 / END OF OWNER DATA, BEGIN FACTS DEVICE DATA
@!  'NAME',         I,     J,MODE,PDES,   QDES,  VSET,   SHMX,   TRMX,   VTMN,   VTMX,   VSMX,    IMX,   LINX,   RMPCT,OWNER,  SET1,    SET2,VSREF, FCREG,NREG,   'MNAME'
"FACTS_DVCE_1",   220,     0,1,  0.000,  0.000,1.01500, 50.000,100.000,0.92630,1.13400,1.00000,  0.000,0.05652,  100.0,   1, 0.00000, 0.00000,   0,   153,   0,"            "
"FACTS_DVCE_2",   224,     0,1,350.000, 40.000,1.01500, 25.000,9999.00,0.90000,1.10000,1.00000,  0.000,0.05000,  100.0,   1, 0.00000, 0.00000,   0,   153,   0,"            "
0 / END OF FACTS DEVICE DATA, BEGIN SWITCHED SHUNT DATA
@!   I,'ID',MODSW,ADJM,ST, VSWHI,  VSWLO, SWREG,NREG, RMPCT,   'RMIDNT',     BINIT,S1,N1,    B1, S2,N2,    B2, S3,N3,    B3, S4,N4,    B4, S5,N5,    B5, S6,N6,    B6, S7,N7,    B7, S8,N8,    B8
   101,'1 ',   1,  0,  1,1.04500,0.95500,   152,   0, 100.0,'            ',-115.00, 1, 1, -15.00, 1, 2,  -5.00, 1, 3, -10.00, 1, 4,  -8.00, 1, 5,  -7.00, 1, 6,  -5.00, 1, 7,  -7.00, 1, 8,  -4.00
   101,'2 ',   1,  0,  1,1.04500,0.95500,   152,   0, 100.0,'            ',-115.00, 1, 1, -15.00, 1, 2,  -5.00, 1, 3, -10.00, 1, 4,  -8.00, 1, 5,  -7.00, 1, 6,  -5.00, 1, 7,  -7.00, 1, 8,  -4.00
   102,'1 ',   1,  0,  1,1.04480,0.96500,   154,   0, 100.0,'            ', 124.00, 1, 1,  25.00, 1, 2,  10.00, 1, 2,  15.00, 1, 1,  15.00, 1, 2,   5.00, 1, 3,   3.00, 1, 2,   4.00, 1, 1,   7.00
   103,'1 ',   4,  0,  1,0.98000,0.64000,  3005,   0, 100.0,'LINE1.  V DC',   0.00, 1, 1,  33.35
   104,'1 ',   2,  0,  1,1.00000,1.00000,  3021,   0, 100.0,'            ', 245.63, 1, 2, 100.00, 1, 1,  50.00, 1, 2,  25.00, 1, 4,  12.50
   104,'2 ',   2,  0,  1,1.00000,1.00000,  3021,   0, 100.0,'            ', 245.63, 1, 2, 100.00, 1, 1,  50.00, 1, 2,  25.00, 1, 4,  12.50
   105,'1 ',   2,  0,  1,1.00000,1.00000,  3022,   0, 100.0,'            ', 296.26, 1, 4,  50.00, 1, 2,  25.00, 1, 4,  12.50, 1, 3,  10.00, 1, 2,  10.00
   105,'2 ',   2,  0,  1,1.00000,1.00000,  3022,   0, 100.0,'            ', 296.26, 1, 4,  50.00, 1, 2,  25.00, 1, 4,  12.50, 1, 3,  10.00, 1, 2,  10.00
   220,'1 ',   1,  0,  1,0.99628,0.99628, 93002,   0, 100.0,'            ',   1.44, 1, 1,   1.44
0 / END OF SWITCHED SHUNT DATA, BEGIN GNE DATA
@!  'NAME',        'MODEL',     NTERM,BUS1...BUSNTERM,NREAL,NINTG,NCHAR
@!ST,OWNER,NMETR
@! REAL1...REAL(MIN(10,NREAL))
@! INTG1...INTG(MIN(10,NINTG))
@! CHAR1...CHAR(MIN(10,NCHAR))
0 / END OF GNE DATA, BEGIN INDUCTION MACHINE DATA
@!   I,'ID',ST,SC,DC,AREA,ZONE,OWNER,TC,BC, MBASE,RATEKV,PC,  PSET,     H,      A,      B,      D,      E,     RA,        XA,        XM,        R1,        X1,        R2,        X2,        X3,       E1,    SE1,   E2,    SE2,   IA1,   IA2, XAMULT
0 / END OF INDUCTION MACHINE DATA, BEGIN SUBSTATION DATA
0 / END OF SUBSTATION DATA
Q
